case5_risk_hawaii.m
% Case saved by PowerWorld Simulator, version 23, build date November 14, 2022
function mpc = Hawaii40_220906
mpc.version = '2';
mpc.baseMVA =  100.00;

%% bus data 
mpc.bus = [
1	1	0.00	0.00	0.00	0.00	1	1.0340044	-1.197635	138.00	1	1.100	0.900	5.22	0.00	0	0
2	2	60.70	0.00	0.00	0.00	1	1.0319560	-3.790540	69.00	1	1.100	0.900	5.25	0.00	0	0
3	1	59.39	0.00	0.00	0.00	1	1.0256227	-4.534503	69.00	1	1.100	0.900	5.71	-0.03	0	0
4	1	22.47	0.00	0.00	0.00	1	1.0202716	-5.471034	69.00	1	1.100	0.900	5.42	-0.01	0	0
5	1	0.00	0.00	0.00	0.00	1	1.0297620	-2.076506	138.00	1	1.100	0.900	5.28	0.00	0	0
6	1	27.46	0.00	0.00	0.00	1	1.0225487	-5.269383	69.00	1	1.100	0.900	5.49	-0.00	0	0
7	1	37.01	0.00	0.00	0.00	1	1.0219757	-5.401629	69.00	1	1.100	0.900	5.48	-0.00	0	0
8	1	65.10	0.00	0.00	0.00	1	1.0198967	-5.427106	69.00	1	1.100	0.900	5.75	-0.03	0	0
9	1	0.00	0.00	0.00	0.00	1	1.0276920	-2.518949	138.00	1	1.100	0.900	5.31	-0.00	0	0
10	1	37.76	0.00	0.00	0.00	1	1.0223138	-5.383213	69.00	1	1.100	0.900	5.47	0.00	0	0
11	1	65.55	0.00	0.00	0.00	1	1.0165626	-6.185474	69.00	1	1.100	0.900	5.50	0.00	0	0
12	1	54.01	0.00	0.00	0.00	1	1.0188822	-5.887123	69.00	1	1.100	0.900	5.51	-0.00	0	0
13	1	59.24	0.00	0.00	0.00	1	1.0205059	-5.793229	69.00	1	1.100	0.900	5.49	-0.00	0	0
14	1	0.00	0.00	0.00	0.00	1	1.0248657	-3.061932	138.00	1	1.100	0.900	5.35	-0.00	0	0
15	1	60.90	0.00	0.00	0.00	1	1.0200765	-5.729969	69.00	1	1.100	0.900	5.51	0.01	0	0
16	1	23.83	0.00	0.00	32.00	1	1.0240368	-6.135252	69.00	1	1.100	0.900	5.56	-0.01	0	0
17	1	12.04	0.00	0.00	0.00	1	1.0173819	-6.613220	69.00	1	1.100	0.900	5.53	-0.01	0	0
18	1	36.32	0.00	0.00	0.00	1	1.0179360	-6.743498	69.00	1	1.100	0.900	5.55	-0.01	0	0
19	1	48.60	0.00	0.00	0.00	1	1.0318878	-3.409178	69.00	1	1.100	0.900	5.89	-0.04	0	0
20	1	64.95	0.00	0.00	0.00	1	1.0301527	-1.970051	69.00	1	1.100	0.900	7.07	-0.18	0	0
21	1	48.34	0.00	0.00	0.00	1	1.0211886	-5.028184	69.00	1	1.100	0.900	5.54	-0.01	0	0
22	1	0.00	0.00	0.00	0.00	1	1.0366541	-0.941776	138.00	1	1.100	0.900	5.19	0.00	0	0
23	3	86.75	0.00	0.00	0.00	1	1.0400000	-2.106015	69.00	1	1.100	0.900	5.10	0.00	0	0
24	1	46.58	0.00	0.00	0.00	1	1.0339133	-3.584931	69.00	1	1.100	0.900	4.59	-0.05	0	0
25	1	0.00	0.00	0.00	0.00	1	1.0368648	-0.650224	138.00	1	1.100	0.900	5.20	0.00	0	0
26	2	75.28	0.00	0.00	0.00	1	1.0355975	-3.483817	69.00	1	1.100	0.900	4.93	-0.02	0	0
27	2	3.95	0.00	0.00	0.00	1	1.0434277	1.105445	69.00	1	1.100	0.900	7.78	-0.10	0	0
28	2	8.82	0.00	0.00	0.00	1	1.0400000	0.064775	69.00	1	1.100	0.900	0.00	0.00	0	0
29	1	7.70	0.00	0.00	0.00	1	1.0356770	-0.243828	69.00	1	1.100	0.900	7.84	-0.12	0	0
30	1	49.03	0.00	0.00	0.00	1	1.0360153	-0.543130	69.00	1	1.100	0.900	8.14	-0.10	0	0
31	1	9.62	0.00	0.00	0.00	1	1.0355588	-2.098946	69.00	1	1.100	0.900	2.58	0.08	0	0
32	1	6.67	0.00	0.00	0.00	1	1.0316720	-1.375741	69.00	1	1.100	0.900	7.37	-0.16	0	0
33	2	58.22	0.00	0.00	0.00	1	1.0359847	-2.976906	69.00	1	1.100	0.900	4.14	-0.01	0	0
34	2	0.00	0.00	0.00	0.00	1	1.0400000	-2.082915	69.00	1	1.100	0.900	4.62	0.00	0	0
35	2	0.00	0.00	0.00	0.00	1	1.0400000	0.187745	138.00	1	1.100	0.900	5.20	0.00	0	0
36	2	0.00	0.00	0.00	0.00	1	1.0369634	-3.454245	69.00	1	1.100	0.900	4.59	-0.05	0	0
37	2	0.00	0.00	0.00	0.00	1	1.0400000	0.072204	138.00	1	1.100	0.900	5.20	0.00	0	0
];

%% generator data 
mpc.gen = [
2	2.50	0.80	0.80	-0.50	1.0400	2.80	1	2.50	1.00	0.00	0.00	0.00	0.00	0.00	0.00	0	0	0	0	0.0000	0	0	0	0
2	2.50	0.80	0.80	-0.50	1.0400	2.80	1	2.50	1.00	0.00	0.00	0.00	0.00	0.00	0.00	0	0	0	0	0.0000	0	0	0	0
2	2.50	0.80	0.80	-0.50	1.0400	2.80	1	2.50	1.00	0.00	0.00	0.00	0.00	0.00	0.00	0	0	0	0	0.0000	0	0	0	0
2	2.50	0.80	0.80	-0.50	1.0400	2.80	1	2.50	1.00	0.00	0.00	0.00	0.00	0.00	0.00	0	0	0	0	0.0000	0	0	0	0
23	69.06	-0.48	23.30	-14.00	1.0400	85.60	1	77.80	20.00	0.00	0.00	0.00	0.00	0.00	0.00	0	0	0	0	0.0000	0	0	0	0
23	38.96	-0.48	13.80	-8.30	1.0400	50.50	1	45.90	0.00	0.00	0.00	0.00	0.00	0.00	0.00	0	0	0	0	0.0000	0	0	0	0
23	69.06	-0.48	23.30	-14.00	1.0400	85.60	1	77.80	20.00	0.00	0.00	0.00	0.00	0.00	0.00	0	0	0	0	0.0000	0	0	0	0
23	47.53	-0.48	15.60	-9.40	1.0400	57.10	1	51.90	23.00	0.00	0.00	0.00	0.00	0.00	0.00	0	0	0	0	0.0000	0	0	0	0
23	46.99	-0.48	15.50	-9.30	1.0400	57.00	1	51.80	20.00	0.00	0.00	0.00	0.00	0.00	0.00	0	0	0	0	0.0000	0	0	0	0
23	44.36	-0.48	15.40	-9.20	1.0400	56.30	1	51.20	6.00	0.00	0.00	0.00	0.00	0.00	0.00	0	0	0	0	0.0000	0	0	0	0
23	44.36	-0.48	15.40	-9.20	1.0400	56.30	1	51.20	6.00	0.00	0.00	0.00	0.00	0.00	0.00	0	0	0	0	0.0000	0	0	0	0
23	43.51	-0.48	14.30	-8.60	1.0400	52.50	1	47.70	20.00	0.00	0.00	0.00	0.00	0.00	0.00	0	0	0	0	0.0000	0	0	0	0
23	43.09	-0.48	14.20	-8.50	1.0400	51.90	1	47.20	20.00	0.00	0.00	0.00	0.00	0.00	0.00	0	0	0	0	0.0000	0	0	0	0
23	12.48	-0.48	4.40	-2.60	1.0400	16.20	1	14.70	0.00	0.00	0.00	0.00	0.00	0.00	0.00	0	0	0	0	0.0000	0	0	0	0
26	20.00	6.00	6.00	-3.60	1.0400	22.00	1	20.00	0.00	0.00	0.00	0.00	0.00	0.00	0.00	0	0	0	0	0.0000	0	0	0	0
26	10.20	3.10	3.10	-1.90	1.0400	11.20	1	10.20	0.00	0.00	0.00	0.00	0.00	0.00	0.00	0	0	0	0	0.0000	0	0	0	0
27	30.00	-5.40	9.00	-5.40	1.0400	33.00	1	30.00	0.00	0.00	0.00	0.00	0.00	0.00	0.00	0	0	0	0	0.0000	0	0	0	0
27	27.60	-5.00	8.30	-5.00	1.0400	30.40	1	27.60	1.00	0.00	0.00	0.00	0.00	0.00	0.00	0	0	0	0	0.0000	0	0	0	0
28	46.30	-5.84	14.70	-8.80	1.0400	53.90	1	49.00	0.00	0.00	0.00	0.00	0.00	0.00	0.00	0	0	0	0	0.0000	0	0	0	0
28	69.00	-5.84	20.70	-12.40	1.0400	75.90	1	69.00	0.00	0.00	0.00	0.00	0.00	0.00	0.00	0	0	0	0	0.0000	0	0	0	0
33	27.60	8.30	8.30	-5.00	1.0400	30.40	1	27.60	0.00	0.00	0.00	0.00	0.00	0.00	0.00	0	0	0	0	0.0000	0	0	0	0
34	7.22	-1.06	2.50	-1.50	1.0400	9.20	1	8.40	2.50	0.00	0.00	0.00	0.00	0.00	0.00	0	0	0	0	0.0000	0	0	0	0
34	6.04	-1.06	2.50	-1.50	1.0400	9.20	1	8.40	2.50	0.00	0.00	0.00	0.00	0.00	0.00	0	0	0	0	0.0000	0	0	0	0
34	6.04	-1.06	2.50	-1.50	1.0400	9.20	1	8.40	2.50	0.00	0.00	0.00	0.00	0.00	0.00	0	0	0	0	0.0000	0	0	0	0
34	6.04	-1.06	2.50	-1.50	1.0400	9.20	1	8.40	2.50	0.00	0.00	0.00	0.00	0.00	0.00	0	0	0	0	0.0000	0	0	0	0
34	6.01	-1.06	2.50	-1.50	1.0400	9.20	1	8.40	2.50	0.00	0.00	0.00	0.00	0.00	0.00	0	0	0	0	0.0000	0	0	0	0
34	7.22	-1.06	2.50	-1.50	1.0400	9.20	1	8.40	2.50	0.00	0.00	0.00	0.00	0.00	0.00	0	0	0	0	0.0000	0	0	0	0
35	58.00	-0.36	17.40	-10.40	1.0400	63.80	1	58.00	5.00	0.00	0.00	0.00	0.00	0.00	0.00	0	0	0	0	0.0000	0	0	0	0
35	28.00	-0.36	8.40	-5.00	1.0400	30.80	1	28.00	5.00	0.00	0.00	0.00	0.00	0.00	0.00	0	0	0	0	0.0000	0	0	0	0
35	0.00	0.00	54.00	-32.40	1.0400	198.00	0	180.00	63.00	0.00	0.00	0.00	0.00	0.00	0.00	0	0	0	0	0.0000	0	0	0	0
35	20.00	-0.36	6.00	-3.60	1.0400	22.00	1	20.00	5.00	0.00	0.00	0.00	0.00	0.00	0.00	0	0	0	0	0.0000	0	0	0	0
35	67.00	-0.36	25.50	-15.30	1.0400	93.50	1	85.00	40.00	0.00	0.00	0.00	0.00	0.00	0.00	0	0	0	0	0.0000	0	0	0	0
35	0.00	0.00	25.50	-15.30	1.0400	93.50	0	85.00	40.00	0.00	0.00	0.00	0.00	0.00	0.00	0	0	0	0	0.0000	0	0	0	0
35	50.00	-0.36	15.00	-9.00	1.0400	55.00	1	50.00	10.00	0.00	0.00	0.00	0.00	0.00	0.00	0	0	0	0	0.0000	0	0	0	0
35	56.20	-0.36	33.90	-20.30	1.0400	124.30	1	113.00	42.00	0.00	0.00	0.00	0.00	0.00	0.00	0	0	0	0	0.0000	0	0	0	0
36	2.00	1.00	1.00	-0.60	1.0400	3.50	1	3.20	2.00	0.00	0.00	0.00	0.00	0.00	0.00	0	0	0	0	0.0000	0	0	0	0
36	2.10	1.00	1.00	-0.60	1.0400	3.50	1	3.20	2.00	0.00	0.00	0.00	0.00	0.00	0.00	0	0	0	0	0.0000	0	0	0	0
36	2.00	1.00	1.00	-0.60	1.0400	3.50	1	3.20	2.00	0.00	0.00	0.00	0.00	0.00	0.00	0	0	0	0	0.0000	0	0	0	0
36	2.48	1.00	1.00	-0.60	1.0400	3.50	1	3.20	2.00	0.00	0.00	0.00	0.00	0.00	0.00	0	0	0	0	0.0000	0	0	0	0
37	0.00	0.00	38.60	-23.20	1.0400	141.60	0	128.70	45.00	0.00	0.00	0.00	0.00	0.00	0.00	0	0	0	0	0.0000	0	0	0	0
37	0.00	0.00	38.40	-23.00	1.0400	140.90	0	128.10	55.00	0.00	0.00	0.00	0.00	0.00	0.00	0	0	0	0	0.0000	0	0	0	0
37	58.32	4.88	26.20	-15.70	1.0400	95.90	1	87.20	20.00	0.00	0.00	0.00	0.00	0.00	0.00	0	0	0	0	0.0000	0	0	0	0
37	0.00	0.00	24.60	-14.80	1.0400	90.30	0	82.10	20.00	0.00	0.00	0.00	0.00	0.00	0.00	0	0	0	0	0.0000	0	0	0	0
37	68.48	4.88	23.40	-14.00	1.0400	85.90	1	78.10	30.00	0.00	0.00	0.00	0.00	0.00	0.00	0	0	0	0	0.0000	0	0	0	0
37	0.00	0.00	23.40	-14.00	1.0400	85.70	0	77.90	20.00	0.00	0.00	0.00	0.00	0.00	0.00	0	0	0	0	0.0000	0	0	0	0
];

%% generator cost data
mpc.gencost = [
2	0	0	4	0.0000	0.003	4.570	0.00
2	0	0	4	0.0000	0.002	4.570	0.00
2	0	0	4	0.0000	0.002	4.570	0.00
2	0	0	4	0.0000	0.002	4.570	0.00
2	0	0	4	0.0000	0.004	4.680	0.00
2	0	0	4	0.0000	0.000	0.000	0.00
2	0	0	4	0.0000	0.005	4.680	0.00
2	0	0	4	0.0000	0.004	4.640	0.00
2	0	0	4	0.0000	0.004	4.640	0.00
2	0	0	4	0.0000	0.003	4.640	0.00
2	0	0	4	0.0000	0.003	4.640	0.00
2	0	0	4	0.0000	0.003	4.640	0.00
2	0	0	4	0.0000	0.005	4.630	0.00
2	0	0	4	0.0000	0.000	0.000	0.00
2	0	0	4	0.0000	0.000	0.000	0.00
2	0	0	4	0.0000	0.000	0.000	0.00
2	0	0	4	0.0000	0.000	0.000	0.00
2	0	0	4	0.0000	0.000	0.000	0.00
2	0	0	4	0.0000	0.000	0.000	0.00
2	0	0	4	0.0000	0.000	0.000	0.00
2	0	0	4	0.0000	0.000	0.000	0.00
2	0	0	4	0.0000	0.003	4.580	0.00
2	0	0	4	0.0000	0.003	4.580	0.00
2	0	0	4	0.0000	0.003	4.580	0.00
2	0	0	4	0.0000	0.003	4.580	0.00
2	0	0	4	0.0000	0.004	4.580	0.00
2	0	0	4	0.0000	0.003	4.580	0.00
2	0	0	4	0.0000	0.004	4.650	0.00
2	0	0	4	0.0000	0.004	4.610	0.00
2	0	0	4	0.0000	0.007	4.810	0.00
2	0	0	4	0.0000	0.003	4.600	0.00
2	0	0	4	0.0000	0.004	4.690	0.00
2	0	0	4	0.0000	0.005	4.690	0.00
2	0	0	4	0.0000	0.004	4.640	0.00
2	0	0	4	0.0000	0.004	4.720	0.00
2	0	0	4	0.0000	0.003	4.580	0.00
2	0	0	4	0.0000	0.002	4.580	0.00
2	0	0	4	0.0000	0.003	4.580	0.00
2	0	0	4	0.0000	0.002	4.580	0.00
2	0	0	4	0.0000	0.006	4.740	0.00
2	0	0	4	0.0000	0.006	4.740	0.00
2	0	0	4	0.0000	0.005	4.690	0.00
2	0	0	4	0.0000	0.005	4.680	0.00
2	0	0	4	0.0000	0.004	4.680	0.00
2	0	0	4	0.0000	0.005	4.680	0.00
];

%% branch data
mpc.branch = [
1	2	0.004840	0.123766	0.00000	123.20	123.20	123.20	1.00000	0.000	1	0.00	0.00	39.04	1.07	-38.98	0.70	0	0	0	0
1	2	0.004840	0.123766	0.00000	123.20	123.20	123.20	1.00000	0.000	1	0.00	0.00	39.04	1.07	-38.98	0.70	0	0	0	0
1	2	0.004840	0.123766	0.00000	123.20	123.20	123.20	1.00000	0.000	1	0.00	0.00	39.04	1.07	-38.98	0.70	0	0	0	0
1	5	0.003400	0.020913	0.00846	232.80	232.80	232.80	0.00000	0.000	1	0.00	0.00	79.50	8.20	-79.30	-7.85	0	0	0	0
1	5	0.003400	0.020913	0.00846	232.80	232.80	232.80	0.00000	0.000	1	0.00	0.00	79.50	8.20	-79.30	-7.85	0	0	0	0
1	22	0.003740	0.024173	0.00605	177.80	177.80	177.80	0.00000	0.000	1	0.00	0.00	-21.04	-8.36	21.06	7.82	0	0	0	0
1	25	0.002890	0.015798	0.00771	217.00	217.00	217.00	0.00000	0.000	1	0.00	0.00	-66.00	-6.75	66.12	6.57	0	0	0	0
1	25	0.002890	0.015798	0.00771	217.00	217.00	217.00	0.00000	0.000	1	0.00	0.00	-66.00	-6.75	66.12	6.57	0	0	0	0
1	35	0.010800	0.041922	0.01284	281.60	281.60	281.60	0.00000	0.000	1	0.00	0.00	-61.55	1.13	61.93	-1.03	0	0	0	0
1	35	0.010800	0.041922	0.01284	281.60	281.60	281.60	0.00000	0.000	1	0.00	0.00	-61.55	1.13	61.93	-1.03	0	0	0	0
2	4	0.042960	0.079357	0.00257	66.80	66.80	66.80	0.00000	0.000	1	0.00	0.00	36.69	-4.23	-36.14	4.98	0	0	0	0
2	6	0.026890	0.058600	0.00312	82.00	82.00	82.00	0.00000	0.000	1	0.00	0.00	44.90	-3.60	-44.38	4.39	0	0	0	0
2	6	0.026890	0.058600	0.00312	82.00	82.00	82.00	0.00000	0.000	1	0.00	0.00	44.90	-3.60	-44.38	4.39	0	0	0	0
2	7	0.027540	0.075691	0.00377	77.80	77.80	77.80	0.00000	0.000	1	0.00	0.00	39.14	-0.29	-38.75	0.98	0	0	0	0
2	21	0.036460	0.077337	0.00173	94.80	94.80	94.80	0.00000	0.000	1	0.00	0.00	29.74	0.57	-29.44	-0.11	0	0	0	0
2	23	0.032620	0.081030	0.00180	101.30	101.30	101.30	0.00000	0.000	1	0.00	0.00	-36.86	5.07	37.28	-4.21	0	0	0	0
2	23	0.032620	0.081030	0.00180	101.30	101.30	101.30	0.00000	0.000	1	0.00	0.00	-36.86	5.07	37.28	-4.21	0	0	0	0
2	23	0.032620	0.081030	0.00180	101.30	101.30	101.30	0.00000	0.000	1	0.00	0.00	-36.86	5.07	37.28	-4.21	0	0	0	0
2	26	0.030490	0.066116	0.00186	61.70	61.70	61.70	0.00000	0.000	1	0.00	0.00	-9.29	-1.48	9.31	1.33	0	0	0	0
2	26	0.030490	0.066116	0.00186	61.70	61.70	61.70	0.00000	0.000	1	0.00	0.00	-9.29	-1.48	9.31	1.33	0	0	0	0
3	6	0.014780	0.036690	0.00104	85.00	85.00	85.00	0.00000	0.000	1	0.00	0.00	34.60	-5.17	-34.43	5.48	0	0	0	0
3	6	0.014780	0.036690	0.00104	85.00	85.00	85.00	0.00000	0.000	1	0.00	0.00	34.60	-5.17	-34.43	5.48	0	0	0	0
3	16	0.023830	0.063585	0.00504	82.80	82.80	82.80	0.00000	0.000	1	0.00	0.00	41.51	-12.62	-41.09	13.22	0	0	0	0
3	19	0.013820	0.031229	0.00541	91.60	91.60	91.60	0.00000	0.000	1	0.00	0.00	-63.03	7.69	63.56	-7.06	0	0	0	0
3	19	0.013820	0.031229	0.00541	91.60	91.60	91.60	0.00000	0.000	1	0.00	0.00	-63.03	7.69	63.56	-7.06	0	0	0	0
3	19	0.013820	0.031229	0.00541	91.60	91.60	91.60	0.00000	0.000	1	0.00	0.00	-63.03	7.69	63.56	-7.06	0	0	0	0
3	21	0.024230	0.047508	0.00152	49.00	49.00	49.00	0.00000	0.000	1	0.00	0.00	18.98	-0.11	-18.90	0.11	0	0	0	0
4	13	0.012140	0.038486	0.00170	53.20	53.20	53.20	0.00000	0.000	1	0.00	0.00	13.67	-4.98	-13.65	4.88	0	0	0	0
5	6	0.004790	0.139559	0.00000	198.00	198.00	198.00	1.00000	0.000	1	0.00	0.00	42.20	5.05	-42.12	-2.67	0	0	0	0
5	9	0.002290	0.012058	0.00409	170.70	170.70	170.70	0.00000	0.000	1	0.00	0.00	68.70	4.68	-68.60	-4.57	0	0	0	0
5	14	0.005740	0.038815	0.00687	162.50	162.50	162.50	0.00000	0.000	1	0.00	0.00	47.70	5.97	-47.57	-5.85	0	0	0	0
7	6	0.004000	0.010000	0.00096	40.20	40.20	40.20	0.00000	0.000	1	0.00	0.00	-22.80	3.24	22.82	-3.29	0	0	0	0
7	6	0.004000	0.010000	0.00096	40.20	40.20	40.20	0.00000	0.000	1	0.00	0.00	-22.80	3.24	22.82	-3.29	0	0	0	0
7	6	0.004000	0.010000	0.00096	40.20	40.20	40.20	0.00000	0.000	1	0.00	0.00	-22.80	3.24	22.82	-3.29	0	0	0	0
6	11	0.019800	0.042395	0.00097	89.00	89.00	89.00	0.00000	0.000	1	0.00	0.00	37.84	-2.97	-37.56	3.45	0	0	0	0
6	12	0.013640	0.033191	0.00066	58.80	58.80	58.80	0.00000	0.000	1	0.00	0.00	32.99	-2.11	-32.85	2.39	0	0	0	0
6	12	0.013640	0.033191	0.00066	58.80	58.80	58.80	0.00000	0.000	1	0.00	0.00	32.99	-2.11	-32.85	2.39	0	0	0	0
7	10	0.004000	0.010000	0.00096	50.00	50.00	50.00	0.00000	0.000	1	0.00	0.00	-4.09	-1.87	4.09	1.77	0	0	0	0
7	13	0.009410	0.027706	0.00096	40.20	40.20	40.20	0.00000	0.000	1	0.00	0.00	24.74	-2.94	-24.69	3.01	0	0	0	0
7	13	0.009410	0.027706	0.00096	40.20	40.20	40.20	0.00000	0.000	1	0.00	0.00	24.74	-2.94	-24.69	3.01	0	0	0	0
7	13	0.009410	0.027706	0.00096	40.20	40.20	40.20	0.00000	0.000	1	0.00	0.00	24.74	-2.94	-24.69	3.01	0	0	0	0
8	15	0.031390	0.075848	0.00197	84.90	84.90	84.90	0.00000	0.000	1	0.00	0.00	6.11	-2.85	-6.10	2.68	0	0	0	0
8	19	0.036990	0.102463	0.00246	90.00	90.00	90.00	0.00000	0.000	1	0.00	0.00	-35.61	1.43	36.06	-0.43	0	0	0	0
8	19	0.036990	0.102463	0.00246	90.00	90.00	90.00	0.00000	0.000	1	0.00	0.00	-35.61	1.43	36.06	-0.43	0	0	0	0
9	10	0.004680	0.125654	0.00000	56.20	56.20	56.20	1.00000	0.000	1	0.00	0.00	41.93	3.88	-41.85	-1.77	0	0	0	0
9	14	0.009330	0.037848	0.01017	169.30	169.30	169.30	0.00000	0.000	1	0.00	0.00	26.67	0.69	-26.61	-1.50	0	0	0	0
11	13	0.018440	0.047771	0.00224	45.30	45.30	45.30	0.00000	0.000	1	0.00	0.00	-15.74	-2.38	15.79	2.26	0	0	0	0
11	15	0.023280	0.069221	0.00152	48.60	48.60	48.60	0.00000	0.000	1	0.00	0.00	-12.24	-1.07	12.28	1.02	0	0	0	0
12	15	0.015110	0.041464	0.00414	77.00	77.00	77.00	0.00000	0.000	1	0.00	0.00	-7.01	-0.59	7.02	0.18	0	0	0	0
12	17	0.022780	0.065341	0.00282	49.90	49.90	49.90	0.00000	0.000	1	0.00	0.00	18.69	-4.20	-18.61	4.13	0	0	0	0
13	16	0.013090	0.032547	0.00110	52.00	52.00	52.00	0.00000	0.000	1	0.00	0.00	12.69	-16.17	-12.63	16.19	0	0	0	0
14	15	0.003250	0.131522	0.00000	85.90	85.90	85.90	1.00000	0.000	1	0.00	0.00	37.09	3.68	-37.05	-1.94	0	0	0	0
14	15	0.003250	0.131522	0.00000	85.90	85.90	85.90	1.00000	0.000	1	0.00	0.00	37.09	3.68	-37.05	-1.94	0	0	0	0
16	18	0.015530	0.039228	0.00191	51.70	51.70	51.70	0.00000	0.000	1	0.00	0.00	29.89	4.14	-29.75	-4.00	0	0	0	0
17	18	0.009840	0.029754	0.00145	47.90	47.90	47.90	0.00000	0.000	1	0.00	0.00	6.57	-4.13	-6.57	4.00	0	0	0	0
19	23	0.012580	0.030449	0.00133	100.30	100.30	100.30	0.00000	0.000	1	0.00	0.00	-77.85	5.51	78.57	-3.91	0	0	0	0
19	23	0.012580	0.030449	0.00133	100.30	100.30	100.30	0.00000	0.000	1	0.00	0.00	-77.85	5.51	78.57	-3.91	0	0	0	0
19	23	0.012580	0.030449	0.00133	100.30	100.30	100.30	0.00000	0.000	1	0.00	0.00	-77.85	5.51	78.57	-3.91	0	0	0	0
19	23	0.012580	0.030449	0.00133	100.30	100.30	100.30	0.00000	0.000	1	0.00	0.00	-77.85	5.51	78.57	-3.91	0	0	0	0
20	23	0.042660	0.074844	0.00179	85.80	85.80	85.80	0.00000	0.000	1	0.00	0.00	-3.27	-11.78	3.32	11.70	0	0	0	0
20	30	0.027800	0.068487	0.00300	64.40	64.40	64.40	0.00000	0.000	1	0.00	0.00	-36.22	6.21	36.57	-5.66	0	0	0	0
20	32	0.014940	0.039916	0.00335	52.00	52.00	52.00	0.00000	0.000	1	0.00	0.00	-25.46	5.58	25.56	-5.67	0	0	0	0
22	23	0.004450	0.116580	0.00000	149.60	149.60	149.60	1.00000	0.000	1	0.00	0.00	18.66	-3.50	-18.64	3.89	0	0	0	0
22	23	0.004450	0.116580	0.00000	149.60	149.60	149.60	1.00000	0.000	1	0.00	0.00	18.66	-3.50	-18.64	3.89	0	0	0	0
22	23	0.004450	0.116580	0.00000	149.60	149.60	149.60	1.00000	0.000	1	0.00	0.00	18.66	-3.50	-18.64	3.89	0	0	0	0
22	25	0.002980	0.017679	0.00775	277.00	277.00	277.00	0.00000	0.000	1	0.00	0.00	-30.27	3.53	30.30	-4.21	0	0	0	0
22	37	0.006820	0.040841	0.01104	292.90	292.90	292.90	0.00000	0.000	1	0.00	0.00	-46.76	-0.86	46.90	0.50	0	0	0	0
23	34	0.030140	0.091720	0.00193	74.40	74.40	74.40	0.00000	0.000	1	0.00	0.00	-0.43	0.04	0.43	-0.25	0	0	0	0
23	34	0.030140	0.091720	0.00193	74.40	74.40	74.40	0.00000	0.000	1	0.00	0.00	-0.43	0.04	0.43	-0.25	0	0	0	0
24	26	0.016450	0.053480	0.00135	65.60	65.60	65.60	0.00000	0.000	1	0.00	0.00	-4.14	-2.05	4.15	1.92	0	0	0	0
24	26	0.016450	0.053480	0.00135	65.60	65.60	65.60	0.00000	0.000	1	0.00	0.00	-4.14	-2.05	4.15	1.92	0	0	0	0
24	33	0.016900	0.033191	0.01102	69.50	69.50	69.50	0.00000	0.000	1	0.00	0.00	-29.73	8.28	29.88	-9.16	0	0	0	0
24	36	0.018930	0.037551	0.00194	48.70	48.70	48.70	0.00000	0.000	1	0.00	0.00	-8.57	-4.18	8.58	4.00	0	0	0	0
25	26	0.005320	0.147265	0.00000	131.70	131.70	131.70	1.00000	0.000	1	0.00	0.00	36.06	0.48	-36.00	1.30	0	0	0	0
25	26	0.005320	0.147265	0.00000	131.70	131.70	131.70	1.00000	0.000	1	0.00	0.00	36.06	0.48	-36.00	1.30	0	0	0	0
25	35	0.004130	0.024420	0.00685	201.40	201.40	201.40	0.00000	0.000	1	0.00	0.00	-64.90	-2.23	65.06	2.45	0	0	0	0
25	35	0.004130	0.024420	0.00685	201.40	201.40	201.40	0.00000	0.000	1	0.00	0.00	-64.90	-2.23	65.06	2.45	0	0	0	0
25	37	0.004890	0.026145	0.00780	224.00	224.00	224.00	0.00000	0.000	1	0.00	0.00	-52.43	-2.72	52.56	2.55	0	0	0	0
25	37	0.004890	0.026145	0.00780	224.00	224.00	224.00	0.00000	0.000	1	0.00	0.00	-52.43	-2.72	52.56	2.55	0	0	0	0
27	29	0.023880	0.042832	0.00128	67.50	67.50	67.50	0.00000	0.000	1	0.00	0.00	53.65	-10.40	-53.00	11.44	0	0	0	0
28	30	0.011200	0.031396	0.00433	70.00	70.00	70.00	0.00000	0.000	1	0.00	0.00	36.54	0.12	-36.40	-0.20	0	0	0	0
28	30	0.011200	0.031396	0.00433	70.00	70.00	70.00	0.00000	0.000	1	0.00	0.00	36.54	0.12	-36.40	-0.20	0	0	0	0
28	31	0.051070	0.104683	0.01435	58.30	58.30	58.30	0.00000	0.000	1	0.00	0.00	33.40	-11.93	-32.82	11.58	0	0	0	0
29	30	0.014790	0.036656	0.00188	49.30	49.30	49.30	0.00000	0.000	1	0.00	0.00	12.83	-6.19	-12.80	6.06	0	0	0	0
29	32	0.023150	0.061347	0.00173	60.00	60.00	60.00	0.00000	0.000	1	0.00	0.00	32.46	-5.24	-32.23	5.67	0	0	0	0
31	33	0.026960	0.057612	0.00333	38.00	38.00	38.00	0.00000	0.000	1	0.00	0.00	23.20	-11.58	-23.03	11.58	0	0	0	0
33	34	0.035280	0.083927	0.00256	84.30	84.30	84.30	0.00000	0.000	1	0.00	0.00	-18.74	2.94	18.86	-2.93	0	0	0	0
33	34	0.035280	0.083927	0.00256	84.30	84.30	84.30	0.00000	0.000	1	0.00	0.00	-18.74	2.94	18.86	-2.93	0	0	0	0
35	37	0.001520	0.008374	0.00809	297.60	297.60	297.60	0.00000	0.000	1	0.00	0.00	25.22	-4.99	-25.21	4.16	0	0	0	0
];

%% bus names
mpc.bus_name = {
'ALOHA138';
'ALOHA69';
'FLOWER69';
'WAVE69';
'HONOLULU138';
'HONOLULU69';
'SURF69';
'KANEOHE69';
'TURTLE138';
'TURTLE69';
'MAHALO69';
'LYCHEE69';
'COCONUT69';
'KAILUA138';
'KAILUA69';
'PALM69';
'WAIMANALO69';
'VOLCANO69';
'PEARL CITY69';
'MILILANI69';
'AIEA69';
'WAIPAHU138';
'WAIPAHU69';
'KAPOLEI69';
'EWA BEACH138';
'EWA BEACH69';
'KAHUKU69';
'HALEIWA69';
'LAIE69';
'WAHIAWA69';
'WAIALUA69';
'HAUULA69';
'WAIANAE69';
'SCHOFIELD69';
'KALAELOA138';
'COGEN69';
'KAHE138';
};

%% Generator Unit Types
mpc.gentype = {
'UN';
'UN';
'UN';
'UN';
'UN';
'UN';
'UN';
'UN';
'UN';
'UN';
'UN';
'UN';
'UN';
'UN';
'UN';
'UN';
'UN';
'UN';
'UN';
'UN';
'UN';
'UN';
'UN';
'UN';
'UN';
'UN';
'UN';
'UN';
'UN';
'UN';
'UN';
'UN';
'UN';
'UN';
'UN';
'UN';
'UN';
'UN';
'UN';
'UN';
'UN';
'UN';
'UN';
'UN';
'UN';
};

%% Generator Fuel Types
mpc.genfuel = {
'wood';
'wood';
'wood';
'wood';
'dfo';
'solar';
'dfo';
'dfo';
'dfo';
'dfo';
'dfo';
'dfo';
'dfo';
'solar';
'solar';
'solar';
'wind';
'wind';
'solar';
'wind';
'solar';
'wood';
'wood';
'wood';
'wood';
'wood';
'wood';
'wood';
'wood';
'coal';
'dfo';
'dfo';
'dfo';
'dfo';
'dfo';
'dfo';
'dfo';
'dfo';
'dfo';
'dfo';
'dfo';
'dfo';
'dfo';
'dfo';
'dfo';
};
